10475384
  -OEChem-05292311013D

 54 58  0     1  0  0  0  0  0999 V2000
    7.7244    1.7415   -0.5422 F   0  0  0  0  0  0  0  0  0  0  0  0
   -3.5462   -0.8031    1.8526 O   0  0  0  0  0  0  0  0  0  0  0  0
    3.0541   -1.1344    0.0005 N   0  0  0  0  0  0  0  0  0  0  0  0
    3.1164   -2.4725    0.1761 N   0  0  0  0  0  0  0  0  0  0  0  0
   -0.9143   -0.1096    0.5965 C   0  0  2  0  0  0  0  0  0  0  0  0
   -2.3352    0.2530    0.0581 C   0  0  2  0  0  0  0  0  0  0  0  0
    0.0981    0.9547    0.0528 C   0  0  0  0  0  0  0  0  0  0  0  0
   -2.7854    1.6760    0.4606 C   0  0  0  0  0  0  0  0  0  0  0  0
   -0.5199   -1.5783    0.1524 C   0  0  0  0  0  0  0  0  0  0  0  0
   -0.4376    2.3262   -0.2832 C   0  0  0  0  0  0  0  0  0  0  0  0
   -1.6592    2.7092    0.5379 C   0  0  0  0  0  0  0  0  0  0  0  0
   -3.4369   -0.7462    0.4354 C   0  0  2  0  0  0  0  0  0  0  0  0
   -0.8729   -0.0793    2.1484 C   0  0  0  0  0  0  0  0  0  0  0  0
    0.9549   -1.7480    0.1529 C   0  0  0  0  0  0  0  0  0  0  0  0
    1.4030    0.6744   -0.1720 C   0  0  0  0  0  0  0  0  0  0  0  0
    1.7806   -0.6661   -0.0065 C   0  0  0  0  0  0  0  0  0  0  0  0
   -4.7656   -0.3617   -0.1606 C   0  0  0  0  0  0  0  0  0  0  0  0
    1.8298   -2.8396    0.2645 C   0  0  0  0  0  0  0  0  0  0  0  0
   -5.6211    0.4645    0.5544 C   0  0  0  0  0  0  0  0  0  0  0  0
   -5.1146   -0.8387   -1.4161 C   0  0  0  0  0  0  0  0  0  0  0  0
    4.2371   -0.4070   -0.1363 C   0  0  0  0  0  0  0  0  0  0  0  0
   -6.8515    0.8209    0.0023 C   0  0  0  0  0  0  0  0  0  0  0  0
   -6.3450   -0.4821   -1.9680 C   0  0  0  0  0  0  0  0  0  0  0  0
   -7.2135    0.3476   -1.2587 C   0  0  0  0  0  0  0  0  0  0  0  0
    4.2870    0.9070    0.3088 C   0  0  0  0  0  0  0  0  0  0  0  0
    5.3467   -1.0069   -0.7166 C   0  0  0  0  0  0  0  0  0  0  0  0
    5.4688    1.6351    0.1709 C   0  0  0  0  0  0  0  0  0  0  0  0
    6.5285   -0.2789   -0.8544 C   0  0  0  0  0  0  0  0  0  0  0  0
    6.5896    1.0422   -0.4106 C   0  0  0  0  0  0  0  0  0  0  0  0
   -2.2642    0.2515   -1.0415 H   0  0  0  0  0  0  0  0  0  0  0  0
   -3.5081    2.0442   -0.2785 H   0  0  0  0  0  0  0  0  0  0  0  0
   -3.2881    1.6909    1.4336 H   0  0  0  0  0  0  0  0  0  0  0  0
   -0.8761   -1.7611   -0.8702 H   0  0  0  0  0  0  0  0  0  0  0  0
   -0.9878   -2.3308    0.7975 H   0  0  0  0  0  0  0  0  0  0  0  0
   -0.7100    2.3397   -1.3464 H   0  0  0  0  0  0  0  0  0  0  0  0
    0.3380    3.0889   -0.1417 H   0  0  0  0  0  0  0  0  0  0  0  0
   -1.3578    2.8422    1.5845 H   0  0  0  0  0  0  0  0  0  0  0  0
   -2.0362    3.6864    0.2126 H   0  0  0  0  0  0  0  0  0  0  0  0
   -3.1775   -1.7560    0.0989 H   0  0  0  0  0  0  0  0  0  0  0  0
   -1.3147   -0.9752    2.5956 H   0  0  0  0  0  0  0  0  0  0  0  0
   -1.3770    0.7907    2.5767 H   0  0  0  0  0  0  0  0  0  0  0  0
    0.1612   -0.0473    2.5137 H   0  0  0  0  0  0  0  0  0  0  0  0
    2.0340    1.4253   -0.6304 H   0  0  0  0  0  0  0  0  0  0  0  0
    1.5949   -3.8854    0.4005 H   0  0  0  0  0  0  0  0  0  0  0  0
   -4.2322   -1.4561    2.0742 H   0  0  0  0  0  0  0  0  0  0  0  0
   -5.3781    0.8396    1.5436 H   0  0  0  0  0  0  0  0  0  0  0  0
   -4.4442   -1.4834   -1.9773 H   0  0  0  0  0  0  0  0  0  0  0  0
   -7.5293    1.4645    0.5556 H   0  0  0  0  0  0  0  0  0  0  0  0
   -6.6268   -0.8501   -2.9503 H   0  0  0  0  0  0  0  0  0  0  0  0
   -8.1718    0.6247   -1.6882 H   0  0  0  0  0  0  0  0  0  0  0  0
    3.4959    1.3862    0.8742 H   0  0  0  0  0  0  0  0  0  0  0  0
    5.3265   -2.0298   -1.0827 H   0  0  0  0  0  0  0  0  0  0  0  0
    5.5256    2.6553    0.5392 H   0  0  0  0  0  0  0  0  0  0  0  0
    7.4007   -0.7391   -1.3094 H   0  0  0  0  0  0  0  0  0  0  0  0
  1 29  1  0  0  0  0
  2 12  1  0  0  0  0
  2 45  1  0  0  0  0
  3  4  1  0  0  0  0
  3 16  1  0  0  0  0
  3 21  1  0  0  0  0
  4 18  2  0  0  0  0
  5  6  1  0  0  0  0
  5  7  1  0  0  0  0
  5  9  1  0  0  0  0
  5 13  1  0  0  0  0
  6  8  1  0  0  0  0
  6 12  1  0  0  0  0
  6 30  1  0  0  0  0
  7 10  1  0  0  0  0
  7 15  2  0  0  0  0
  8 11  1  0  0  0  0
  8 31  1  0  0  0  0
  8 32  1  0  0  0  0
  9 14  1  0  0  0  0
  9 33  1  0  0  0  0
  9 34  1  0  0  0  0
 10 11  1  0  0  0  0
 10 35  1  0  0  0  0
 10 36  1  0  0  0  0
 11 37  1  0  0  0  0
 11 38  1  0  0  0  0
 12 17  1  0  0  0  0
 12 39  1  0  0  0  0
 13 40  1  0  0  0  0
 13 41  1  0  0  0  0
 13 42  1  0  0  0  0
 14 16  2  0  0  0  0
 14 18  1  0  0  0  0
 15 16  1  0  0  0  0
 15 43  1  0  0  0  0
 17 19  2  0  0  0  0
 17 20  1  0  0  0  0
 18 44  1  0  0  0  0
 19 22  1  0  0  0  0
 19 46  1  0  0  0  0
 20 23  2  0  0  0  0
 20 47  1  0  0  0  0
 21 25  2  0  0  0  0
 21 26  1  0  0  0  0
 22 24  2  0  0  0  0
 22 48  1  0  0  0  0
 23 24  1  0  0  0  0
 23 49  1  0  0  0  0
 24 50  1  0  0  0  0
 25 27  1  0  0  0  0
 25 51  1  0  0  0  0
 26 28  2  0  0  0  0
 26 52  1  0  0  0  0
 27 29  2  0  0  0  0
 27 53  1  0  0  0  0
 28 29  1  0  0  0  0
 28 54  1  0  0  0  0
M  END
> <PUBCHEM_COMPOUND_CID>
10475384

> <PUBCHEM_CONFORMER_RMSD>
0.8

> <PUBCHEM_CONFORMER_DIVERSEORDER>
1
2

> <PUBCHEM_MMFF94_PARTIAL_CHARGES>
37
1 -0.19
10 0.14
12 0.42
14 -0.18
15 -0.11
16 -0.2
17 -0.14
18 0.14
19 -0.15
2 -0.68
20 -0.15
21 -0.02
22 -0.15
23 -0.15
24 -0.15
25 -0.15
26 -0.15
27 -0.15
28 -0.15
29 0.19
3 0.59
4 -0.71
43 0.15
44 0.15
45 0.4
46 0.15
47 0.15
48 0.15
49 0.15
5 0.14
50 0.15
51 0.15
52 0.15
53 0.15
54 0.15
7 -0.28
9 0.18

> <PUBCHEM_EFFECTIVE_ROTOR_COUNT>
4

> <PUBCHEM_PHARMACOPHORE_FEATURES>
8
1 2 acceptor
1 2 donor
1 4 acceptor
5 3 4 14 16 18 rings
6 17 19 20 22 23 24 rings
6 21 25 26 27 28 29 rings
6 5 6 7 8 10 11 rings
6 5 7 9 14 15 16 rings

> <PUBCHEM_HEAVY_ATOM_COUNT>
29

> <PUBCHEM_ATOM_DEF_STEREO_COUNT>
3

> <PUBCHEM_ATOM_UDEF_STEREO_COUNT>
0

> <PUBCHEM_BOND_DEF_STEREO_COUNT>
0

> <PUBCHEM_BOND_UDEF_STEREO_COUNT>
0

> <PUBCHEM_ISOTOPIC_ATOM_COUNT>
0

> <PUBCHEM_COMPONENT_COUNT>
1

> <PUBCHEM_CACTVS_TAUTO_COUNT>
1

> <PUBCHEM_CONFORMER_ID>
009FD77800000001

> <PUBCHEM_MMFF94_ENERGY>
107.5115

> <PUBCHEM_FEATURE_SELFOVERLAP>
40.713

> <PUBCHEM_SHAPE_FINGERPRINT>
10050765 1 18122064204297622140
10595046 47 18343021043092348849
10692045 39 11602815770390310529
10835480 77 18187081746095483479
10906281 52 18188226341541544929
11135609 187 18261669290745746745
11135926 11 18408884023306712015
11524674 6 14045737141066190237
11621639 179 18118665657977803301
12011746 2 18409450301854032176
12236239 1 17847061082140753799
12516196 113 18342736321611083137
12788726 201 18263639581107237849
12838862 33 18337377336598039904
13533116 47 17386278793124079338
13540713 5 18124033425275235234
13673619 4 12679464187864967946
13690498 29 17560788979870516615
13782708 43 12751239194471301749
13914758 101 15502367899043498268
14117953 113 18187368749006718060
14394314 77 18341620266128746081
14528608 73 18342176661444270546
1454969 45 18413388735214074052
14767858 380 18413385453584753429
14840074 17 18202561778766412735
14856354 85 15913330217258790661
15021287 119 10231750089871242747
15131766 46 16083361002286946958
15183329 4 18411693271626290199
15276724 80 18266457608187864829
16993438 75 18117001185513478995
16994733 274 17240757325466064245
18681886 176 17203317953532816291
18769570 83 14923940129043665167
21033648 29 12829783985203469028
21150785 3 17918274263822202479
21236236 1 18341054017197024193
21365058 113 14405182901996040266
21424621 283 16805879581674881541
21639891 77 16226916456945058617
221357 26 18202848743096624504
23516275 137 17344936082020421215
23522609 53 17773619176898773497
23559900 14 18335138751691953497
23569914 152 17259890828695273711
24771293 8 18200303442139824464
24771750 20 17607827280701605629
255183 451 17842002092341720574
2838139 119 13262398873718315887
3009799 131 18113897165355493869
34934 24 18408039623872116299
350125 39 18411703183857525448
4073 2 18187088364577446155
4325135 7 18131633378806658460
4340502 62 16225764108091101762
4353968 344 18269554936906673118
4516262 110 17531256110850262252
497634 4 17489311849945516857
5104073 3 18189625947382914528
5283173 99 17823410509813320341
54039377 194 17845930862431099551
5486654 2 18413388756593997198
563151 97 18339083666721504065
57527295 17 18041826373684970875
59755656 215 18407758123045908764
6328613 192 18271807870549955025
7226269 152 17385723604007691185
9961470 85 17979633765069771064

> <PUBCHEM_SHAPE_MULTIPOLES>
573.7
18.59
2.31
1.24
2.6
0.02
0.12
3.7
-7.91
1.76
0.19
-1.68
-0.18
-0.6

> <PUBCHEM_SHAPE_SELFOVERLAP>
1276.96

> <PUBCHEM_SHAPE_VOLUME>
305.8

> <PUBCHEM_COORDINATE_TYPE>
2
5
10

$$$$
